jwang/notes2/ieee39_ev2_out.txt
ANDES 1.7.0.post180.dev0+gae235547
Copyright (C) 2015-2022 Hantao Cui

ANDES comes with ABSOLUTELY NO WARRANTY
Case file: /home/jwang175/andes/jwang/case/ieee39_ev2.xlsx
Report time: 06/01/2022 11:28:17 AM

Power flow converged in 5 iterations.
Flat-start: No

Statistics:
Buses                             39
Generators                        11
Committed Gens                    11
Loads                             19
Shunts                             2
Lines                             46
Transformers                      12
Areas                              2

EXTENDED SUMMARY:
                              P (pu)            Q (pu)

Generation                    58.991             10.67
Load                          58.692            17.383

BUS DATA:
                            Bus Name            Vm(pu)          Va(rad.)

1                               BUS1               1.1          -0.16973
2                               BUS2            1.0995          -0.13347
3                              LOAD3            1.0743           -0.2103
4                              LOAD4            1.0868          -0.19797
5                               BUS5            1.0993          -0.16531
6                               BUS6             1.099          -0.15185
7                              LOAD7            1.0883          -0.18555
8                              LOAD8            1.0868          -0.19364
9                               BUS9            1.0968          -0.19281
10                             BUS10               1.1          -0.12372
11                             BUS11            1.0992          -0.13496
12                            LOAD12            1.0973          -0.15924
13                             BUS13            1.0967          -0.14025
14                             BUS14            1.0904          -0.17497
15                            LOAD15            1.0789          -0.21128
16                            LOAD16            1.0874          -0.20226
17                             BUS17            1.0844          -0.21464
18                            LOAD18            1.0794          -0.21984
19                             BUS19               1.1          -0.15459
20                            LOAD20            1.0343          -0.17713
21                            LOAD21            1.0856          -0.16527
22                             BUS22               1.1         -0.095681
23                            LOAD23            1.0942           -0.1112
24                            LOAD24            1.0923          -0.20247
25                            LOAD25            1.0972          -0.13684
26                            LOAD26             1.093          -0.20374
27                            LOAD27            1.0839          -0.22741
28                            LOAD28            1.0813          -0.19503
29                            LOAD29            1.0762          -0.16502
30                             GEN30            1.0928         -0.015455
31                             GEN31            1.0145          0.014193
32                             GEN32            1.0449          0.022609
33                             GEN33            1.0406         -0.092129
34                             GEN34            1.0489         -0.093151
35                             GEN35            1.0955         0.0013873
36                             GEN36            1.0995          -0.02938
37                             GEN37            1.0793         -0.050515
38                             GEN38            1.0528         -0.082809
39                             GEN39            1.0821          -0.19129

LINE DATA:
                           Line Name     Fr. Bus (idx)      To Bus (idx)       P From (pu)       Q From (pu)         P To (pu)         Q To (pu)

Line_1                        Line_1                 1                 2           -1.0565          -0.30205            1.0598          -0.50459
Line_2                        Line_2                 1                39            1.0565           0.30205           -1.0551             -1.16
Line_3                        Line_3                 2                 3             6.137            1.3885           -6.0939           -1.1922
Line_4                        Line_4                 2                25            0.4293            -0.142          -0.42822         -0.032809
Line_5                        Line_5                 3                 4          -0.71121          -0.71075           0.71217           0.46787
Line_6                        Line_6                 3                18           0.79205          -0.60249          -0.79123           0.36445
Line_7                        Line_7                 4                 5           -3.0996          -0.90058            3.1066           0.85168
Line_8                        Line_8                 4                14           -2.1224          -0.23024            2.1254           0.11592
Line_9                        Line_9                 5                 6           -6.2038           0.60451            6.2103          -0.57328
Line_10                      Line_10                 5                 8            3.0973           0.96074           -3.0902            -1.038
Line_11                      Line_11                 6                 7              4.45            1.0001           -4.4396          -0.97576
Line_12                      Line_12                 6                11           -2.4701           0.12889            2.4736          -0.25496
Line_13                      Line_13                 7                 8            2.0965           0.13393            -2.095          -0.20899
Line_14                      Line_14                 8                 9         -0.046191          -0.52289          0.046368           0.07222
Line_15                      Line_15                 9                39         -0.046368          -0.07222          0.046721           -1.3434
Line_16                      Line_16                10                11            3.1533          -0.11249           -3.1501          0.059699
Line_17                      Line_17                10                13            4.6783           0.40709            -4.671          -0.41653
Line_18                      Line_18                13                14            4.1437           0.28259           -4.1308          -0.34318
Line_19                      Line_19                14                15            2.0053           0.22726           -1.9989          -0.58085
Line_20                      Line_20                15                16            -1.208          -0.95248            1.2097           0.76951
Line_21                      Line_21                16                17            1.6598           0.16465           -1.6582          -0.30171
Line_22                      Line_22                16                19           -2.9547           -0.5681            2.9667           0.35091
Line_23                      Line_23                16                21             -3.21           0.24837            3.2171          -0.42969
Line_24                      Line_24                16                24        -0.0019932          -0.93814         0.0021978           0.86139
Line_25                      Line_25                17                18            0.7928           0.51755          -0.79221           -0.6651
Line_26                      Line_26                17                27           0.86536          -0.21584          -0.86453          -0.15114
Line_27                      Line_27                21                22           -5.9631          -0.72282            5.9874           0.84282
Line_28                      Line_28                22                23            1.9804           0.44719           -1.9783          -0.63578
Line_29                      Line_29                23                24            3.1127           -0.2108           -3.0949          0.062616
Line_30                      Line_30                25                26            2.4801          -0.32849           -2.4638          -0.12173
Line_31                      Line_31                26                27            1.9564           0.37199           -1.9516           -0.6055
Line_32                      Line_32                26                28          -0.19098          -0.17752           0.19141          -0.73991
Line_33                      Line_33                26                29          -0.69465          -0.24311           0.69761          -0.93502
Line_34                      Line_34                28                29           -2.2559           0.46331            2.2624          -0.68257
Line_35                      Line_35                 2                30           -7.6261          -0.74188            7.6261            1.6653
Line_36                      Line_36                31                 6            8.1902            1.9505           -8.1902          -0.55573
Line_37                      Line_37                10                32           -7.8316           -0.2946            7.8316            1.4569
Line_38                      Line_38                12                11          -0.67578          -0.17741           0.67644           0.19526
Line_39                      Line_39                12                13          -0.52684          -0.12324           0.52723           0.13394
Line_40                      Line_40                19                20            1.7621           0.18333           -1.7601           -0.1431
Line_41                      Line_41                19                33           -4.7288          -0.53424            4.7438           0.83855
Line_42                      Line_42                20                34           -5.0548          -0.88914            5.0773            1.3403
Line_43                      Line_43                22                35           -7.9678             -1.29            7.9678             2.099
Line_44                      Line_44                23                36           -3.6148        -0.0012698            3.6203           0.29815
Line_45                      Line_45                25                37           -4.2968          -0.11173            4.3065           0.48576
Line_46                      Line_46                29                38           -5.8012           0.34582            5.8257            0.1321

OTHER ALGEBRAIC VARIABLES:
                                    

q PV 1                        1.6653
q PV 2                        2.3514
q PV 3                        1.4569
q PV 4                       0.83855
q PV 5                        1.3403
q PV 6                         2.099
q PV 7                       0.29815
q PV 8                       0.48576
q PV 9                       0.78983
q PV 10                     -0.65774
q Slack 10                  0.002095
p Slack 10                    3.0003

